0.01 EAWATSLSY 0.849007
0.015 FPAMPAHIGY 0.827763
0.02 EAFPGDVFY 0.810819
0.025 MPLAAAFSDAF 0.793415
0.03 LASNPNVTY 0.775160
0.04 YVVESTGVF 0.746590
0.05 HLFDASSTY 0.731211
0.06 MPSTKTFVYTY 0.711203
0.07 HSMEAIVGY 0.703848
0.08 IPASYGILPM 0.680322
0.09 MPSLQARPL 0.669219
0.1 MAANTSWAA 0.657361
0.125 YLYPGNTVM 0.640919
0.15 LPCSTGEEPY 0.621404
0.175 SPMPTPAAGPY 0.604462
0.2 IRPQDYTTAF 0.583614
0.25 YPDAIATM 0.553890
0.3 NASRVSPEAY 0.526766
0.4 VAFLITNPL 0.486370
0.5 EAVAASYAEPLY 0.457659
0.6 YVLSMGADF 0.433835
0.7 FYTDDWAAF 0.413430
0.8 VPALIDFDRF 0.393668
0.9 MAQQLVAMGF 0.376455
1.0 SVYFRFKSY 0.359894
1.1 QAFADLITIEEY 0.345801
1.2 NPERKFGWYAF 0.332936
1.3 FPTAGHRKV 0.320491
1.4 YIIPTIIAV 0.309391
1.5 FPPALPVWA 0.300424
1.6 YAARSSIARL 0.290408
1.7 MADLAWDMVA 0.282826
1.8 YVCFYKITKY 0.275272
1.9 TTHNIENWY 0.268250
2 MPVLIGGFGNW 0.260654
2.5 FLAPFIFVW 0.231765
3 LPQVYESLG 0.210475
3.5 LTYGTGTAA 0.192613
4 YSSPNFVPFLS 0.177251
4.5 TVVPGVTGL 0.165682
5 LSPFLLAQF 0.155581
5.5 LPKASRLFV 0.146470
6 IHFDEPIPW 0.138201
6.5 SPQYAATGALFW 0.131255
7 IATDHNQLI 0.124770
7.5 FPVVKNVNPSSE 0.118630
8 MHKHPFFALCLK 0.113149
8.5 PQSGSLPL 0.108593
9 HIYTWRAVYA 0.104347
9.5 IYPVEGYWTWG 0.100079
10 EWFPEICKREHY 0.096359
11 ILPEFVSCEK 0.089396
12 FDFWMSVRAAAL 0.083436
13 NTAPELGEA 0.078171
14 DYDNLYQVW 0.073566
15 AFRSYDSYQDSF 0.069614
16 LVACGVLSSI 0.066071
17 VLSAAVFCI 0.062964
18 GFVLNVVAAGMF 0.059975
19 IPSENEILIDG 0.057392
20 MVNDPPAS 0.054932
21 VPAFHLAVGNP 0.052710
22 LTAMAYDRYVA 0.050563
23 DNYKKEILIM 0.048670
24 NVVPIGFV 0.046874
25 DVWKSDVWIDLL 0.045225
26 YTTVLTTYYSE 0.043654
27 SCINEDIF 0.042160
28 YQACKVDYKK 0.040773
29 RARDICQLAP 0.039440
30 FLELTEQSQKL 0.038217
31 ARTLDQHDF 0.037099
32 MSGCAVHNDETS 0.036043
33 NGYISRMDYN 0.035031
34 LYAEFEKASGYS 0.034060
35 DKERTDERF 0.033163
36 PKVSFKEIATKY 0.032278
37 PRVWADLDAYL 0.031491
38 LLSQLMLRE 0.030735
39 LEDEDGFYLS 0.029977
40 SEWLKERVG 0.029239
41 QGWSSAYTVE 0.028530
42 FVRRQVLV 0.027824
43 ANNKMEAPMIW 0.027136
44 EGVRYGGER 0.026510
45 DREGRKAIF 0.025912
46 NAHQIGPD 0.025339
47 VGYFLCAREFSR 0.024793
48 LHQAEIVQR 0.024270
49 TVSPTDIE 0.023739
50 VSVRTLPDPR 0.023189
55 LRESIATLVQEA 0.020826
60 IQRDRAAGLK 0.018731
65 VLWSAYAWILE 0.016871
70 IGAICYRTNEMG 0.015186
75 LFLTTHSGKIQ 0.013624
80 VEGGIDLKD 0.012086
85 RKSFLREHNT 0.010586
90 KIEENRVS 0.008947
95 KDVRAGRWGQS 0.007053
